IEEE/34Bus/ieee34-1_Curr_Elem.Txt

CIRCUIT ELEMENT CURRENTS

(Currents into element from indicated bus)

Power Delivery Elements

  Bus     Phase    Magnitude, A     Angle      (Real)   +j  (Imag)

ELEMENT = "Vsource.SOURCE"
SOURCEBUS     1           16.824 /_ -162.8 =    -16.072 +j   -4.9742
SOURCEBUS     2           14.903 /_   83.5 =     1.6826 +j    14.808
SOURCEBUS     3           17.428 /_  -34.3 =     14.389 +j   -9.8335
------------
SOURCEBUS     0           16.824 /_   17.2 =     16.072 +j    4.9742
SOURCEBUS     0           14.903 /_  -96.5 =    -1.6826 +j   -14.808
SOURCEBUS     0           17.428 /_  145.7 =    -14.389 +j    9.8335

ELEMENT = "Transformer.SUBXF"
SOURCEBUS     1           16.824 /_   17.2 =     16.072 +j    4.9742
SOURCEBUS     2           14.903 /_  -96.5 =    -1.6826 +j   -14.808
SOURCEBUS     3           17.428 /_  145.7 =    -14.389 +j    9.8335
SOURCEBUS     0                0 /_    0.0 =          0 +j         0
SOURCEBUS Resid      4.7999E-010 /_ -166.0 =   -4.6566E-010 +j -1.1642E-010
------------
800           1           51.398 /_  167.5 =    -50.173 +j    11.156
800           2           44.208 /_   52.4 =     26.966 +j    35.031
800           3           40.691 /_  -62.3 =     18.891 +j   -36.041
800           0           11.026 /_  -67.0 =     4.3154 +j   -10.147
800       Resid      2.3283E-010 /_  180.0 =   -2.3283E-010 +j         0

ELEMENT = "Line.L1"
800           1           51.398 /_  -12.5 =     50.173 +j   -11.156
800           2           44.208 /_ -127.6 =    -26.966 +j   -35.031
800           3           40.691 /_  117.7 =    -18.891 +j    36.041
800       Resid           11.026 /_  113.0 =     -4.3154 +j    10.147
------------
802           1           51.409 /_  167.4 =    -50.175 +j    11.197
802           2           44.208 /_   52.4 =     26.996 +j    35.008
802           3           40.695 /_  -62.4 =     18.862 +j    -36.06
802       Resid           11.025 /_  -66.9 =      4.3172 +j   -10.145

ELEMENT = "Line.L2"
802           1           51.409 /_  -12.6 =     50.175 +j   -11.197
802           2           43.158 /_ -127.2 =    -26.067 +j   -34.396
802           3            39.85 /_  118.2 =     -18.85 +j    35.109
802       Resid           11.728 /_  116.6 =      -5.258 +j    10.483
------------
806           1           51.417 /_  167.4 =    -50.177 +j    11.224
806           2           43.157 /_   52.8 =     26.088 +j     34.38
806           3           39.852 /_  -61.8 =      18.83 +j   -35.122
806       Resid           11.727 /_  -63.4 =      5.2592 +j   -10.482

ELEMENT = "Line.L3"
806           1           51.417 /_  -12.6 =     50.177 +j   -11.224
806           2           42.109 /_ -126.7 =    -25.157 +j   -33.768
806           3            39.01 /_  118.8 =    -18.819 +j    34.171
806       Resid           12.472 /_  119.8 =     -6.2009 +j    10.821
------------
808           1            51.56 /_  166.9 =     -50.21 +j    11.722
808           2           42.104 /_   52.7 =     25.531 +j     33.48
808           3           39.043 /_  -61.8 =     18.456 +j   -34.406
808       Resid           12.461 /_  -60.0 =      6.2228 +j   -10.796

ELEMENT = "Line.L4"
808           2           0.6018 /_ -143.1 =   -0.48156 +j  -0.36092
------------
810           2          0.62585 /_   32.0 =    0.53077 +j   0.33162

ELEMENT = "Line.L5"
808           1            51.56 /_  -13.1 =      50.21 +j   -11.722
808           2           40.941 /_ -126.8 =    -24.519 +j   -32.787
808           3           39.043 /_  118.2 =    -18.456 +j    34.406
808       Resid           12.427 /_  125.6 =     -7.2352 +j    10.104
------------
812           1           51.721 /_  166.3 =    -50.241 +j    12.285
812           2           40.932 /_   52.5 =     24.942 +j    32.455
812           3            39.08 /_  -62.5 =     18.038 +j   -34.668
812       Resid           12.416 /_  -54.2 =      7.2606 +j   -10.072

ELEMENT = "Line.L6"
812           1           51.721 /_  -13.7 =     50.241 +j   -12.285
812           2           40.932 /_ -127.5 =    -24.942 +j   -32.455
812           3            39.08 /_  117.5 =    -18.038 +j    34.668
812       Resid           12.416 /_  125.8 =     -7.2606 +j    10.072
------------
814           1           51.846 /_  165.8 =    -50.261 +j    12.719
814           2           40.926 /_   51.9 =     25.269 +j    32.193
814           3           39.109 /_  -63.1 =     17.712 +j   -34.868
814       Resid           12.405 /_  -54.1 =      7.2805 +j   -10.044

ELEMENT = "Line.L7"
814R          1           48.228 /_  -14.2 =     46.755 +j   -11.831
814R          2           39.686 /_ -128.1 =    -24.502 +j   -31.219
814R          3           37.924 /_  116.9 =    -17.176 +j    33.811
814R      Resid           10.541 /_  118.8 =     -5.0764 +j     9.238
------------
850           1           48.228 /_  165.8 =    -46.755 +j    11.831
850           2           39.686 /_   51.9 =     24.502 +j    31.218
850           3           37.924 /_  -63.1 =     17.176 +j   -33.811
850       Resid           10.541 /_  -61.2 =      5.0764 +j    -9.238

ELEMENT = "Line.L8"
816           1           13.013 /_  -26.5 =     11.642 +j   -5.8136
------------
818           1            13.02 /_  153.4 =    -11.642 +j    5.8303

ELEMENT = "Line.L9"
816           1           35.626 /_   -9.7 =     35.113 +j   -6.0217
816           2            39.62 /_ -128.1 =     -24.45 +j   -31.176
816           3           37.924 /_  116.9 =    -17.173 +j    33.813
816       Resid           7.3373 /_   27.5 =      6.5103 +j    3.3841
------------
824           1           35.656 /_  170.0 =    -35.118 +j    6.1709
824           2           39.618 /_   51.7 =      24.56 +j    31.087
824           3           37.934 /_  -63.3 =     17.062 +j    -33.88
824       Resid           7.3282 /_ -152.6 =     -6.5037 +j   -3.3771

ELEMENT = "Line.L10"
818           1           11.671 /_  -26.4 =     10.453 +j   -5.1904
------------
820           1           11.873 /_  151.6 =    -10.439 +j    5.6561

ELEMENT = "Line.L11"
820           1           5.2552 /_  -27.8 =     4.6474 +j   -2.4534
------------
822           1           5.3143 /_  150.9 =    -4.6435 +j    2.5847

ELEMENT = "Line.L12"
824           2           1.5424 /_ -148.0 =    -1.3078 +j  -0.81783
------------
826           2           1.5554 /_   31.0 =     1.3327 +j   0.80203

ELEMENT = "Line.L13"
824           1           35.656 /_  -10.0 =     35.118 +j   -6.1709
824           2           36.661 /_ -126.6 =    -21.865 +j   -29.427
824           3           37.795 /_  116.8 =    -17.058 +j    33.727
824       Resid           4.2398 /_   26.2 =      3.8044 +j    1.8714
------------
828           1           35.659 /_  170.0 =    -35.119 +j    6.1831
828           2            36.66 /_   53.4 =     21.874 +j     29.42
828           3           37.796 /_  -63.2 =     17.049 +j   -33.732
828       Resid            4.239 /_ -153.8 =     -3.8039 +j   -1.8708

ELEMENT = "Line.L14"
828           1           35.406 /_   -9.9 =     34.882 +j   -6.0724
828           2            36.66 /_ -126.6 =    -21.874 +j    -29.42
828           3           37.657 /_  116.9 =    -17.045 +j    33.579
828       Resid           4.4675 /_   25.4 =      4.0368 +j    1.9138
------------
830           1           35.468 /_  169.7 =    -34.892 +j    6.3671
830           2           36.648 /_   52.9 =     22.089 +j    29.243
830           3           37.676 /_  -63.5 =     16.826 +j    -33.71
830       Resid           4.4494 /_ -154.7 =     -4.0234 +j      -1.9

ELEMENT = "Line.L15"
830           1               34 /_   -9.1 =      33.57 +j   -5.3937
830           2           35.929 /_ -126.6 =    -21.422 +j   -28.845
830           3           36.366 /_  116.8 =    -16.412 +j    32.452
830       Resid           4.6234 /_   22.7 =      4.2643 +j    1.7865
------------
854           1           34.002 /_  170.9 =     -33.57 +j    5.4011
854           2           35.929 /_   53.4 =     21.428 +j     28.84
854           3           36.366 /_  -63.2 =     16.406 +j   -32.455
854       Resid           4.6229 /_ -157.3 =     -4.2639 +j   -1.7861

ELEMENT = "Line.L16"
832           1           20.996 /_    1.7 =     20.986 +j   0.62268
832           2            23.14 /_ -115.6 =    -10.009 +j   -20.864
832           3           24.111 /_  129.1 =    -15.203 +j    18.713
832       Resid           4.4938 /_   19.9 =       4.226 +j    1.5282
------------
858           1           20.995 /_ -178.5 =    -20.988 +j  -0.54947
858           2           23.123 /_   64.2 =     10.061 +j    20.819
858           3           24.101 /_  -51.1 =     15.149 +j   -18.745
858       Resid           4.4892 /_ -160.1 =     -4.2222 +j   -1.5252

ELEMENT = "Line.L17"
834           1           8.4779 /_  -39.1 =     6.5813 +j   -5.3442
834           2            8.386 /_ -154.9 =     -7.594 +j   -3.5576
834           3           7.8982 /_   95.7 =   -0.77966 +j    7.8596
834       Resid           2.0733 /_   30.2 =      1.7923 +j    1.0421
------------
860           1           8.4973 /_  140.8 =    -6.5819 +j    5.3742
860           2           8.3977 /_   24.9 =     7.6155 +j    3.5392
860           3           7.9089 /_  -84.5 =    0.75721 +j   -7.8726
860       Resid           2.0713 /_ -149.8 =     -1.7907 +j   -1.0409

ELEMENT = "Line.L18"
834           1            14.82 /_   35.4 =     12.074 +j    8.5935
834           2           16.286 /_  -94.9 =    -1.3843 +j   -16.227
834           3           15.121 /_  151.6 =    -13.306 +j     7.183
834       Resid           2.6545 /_    9.8 =      2.6161 +j    0.4504
------------
842           1           14.818 /_ -144.6 =    -12.074 +j   -8.5894
842           2           16.284 /_   85.1 =     1.3873 +j    16.224
842           3           15.119 /_  -28.4 =     13.303 +j   -7.1848
842       Resid           2.6543 /_ -170.2 =     -2.6158 +j  -0.45023

ELEMENT = "Line.L19"
836           1           1.1248 /_  -26.3 =      1.008 +j  -0.49919
836           2           1.5549 /_ -153.7 =    -1.3935 +j  -0.68971
836           3           1.2625 /_   72.0 =    0.39073 +j    1.2005
836       Resid         0.012704 /_ -114.1 =   -0.0051962 +j -0.011592
------------
840           1           1.1308 /_  153.1 =    -1.0083 +j   0.51198
840           2           1.5596 /_   25.9 =     1.4027 +j    0.6819
840           3           1.2707 /_ -108.4 =   -0.40028 +j    -1.206
840       Resid         0.013459 /_   64.2 =   0.0058671 +j  0.012113

ELEMENT = "Line.L20"
836           1        0.0041664 /_   91.2 =  -8.4012E-005 +j 0.0041656
836           2           2.0947 /_ -148.8 =    -1.7925 +j   -1.0838
836           3        0.0035906 /_ -150.1 =  -0.0031113 +j -0.0017921
836       Resid           2.0962 /_   31.1 =      1.7957 +j    1.0814
------------
862           1      4.0877E-011 /_  -20.9 =  3.8199E-011 +j -1.4552E-011
862           2           2.0959 /_   31.1 =     1.7955 +j    1.0813
862           3         1.5E-011 /_   76.0 =  3.638E-012 +j 1.4552E-011
862       Resid           2.0959 /_ -148.9 =     -1.7955 +j   -1.0813

ELEMENT = "Line.L21"
842           1           14.686 /_   36.7 =      11.78 +j    8.7701
842           2           16.284 /_  -94.9 =    -1.3873 +j   -16.224
842           3           15.119 /_  151.6 =    -13.303 +j    7.1848
842       Resid           2.9224 /_    5.3 =      2.9099 +j   0.26949
------------
844           1           14.675 /_ -143.4 =    -11.781 +j     -8.75
844           2           16.273 /_   85.1 =     1.4017 +j    16.212
844           3            15.11 /_  -28.4 =     13.288 +j   -7.1935
844       Resid           2.9213 /_ -174.7 =     -2.9089 +j  -0.26868

ELEMENT = "Line.L22"
844           1           9.8835 /_   79.7 =      1.773 +j    9.7231
844           2           9.3646 /_  -57.4 =     5.0505 +j   -7.8859
844           3           9.5915 /_ -165.5 =     -9.288 +j   -2.3936
844       Resid           2.5265 /_   12.7 =      2.4645 +j   0.55643
------------
846           1           9.8304 /_ -100.4 =    -1.7741 +j   -9.6689
846           2           9.3159 /_  122.5 =    -5.0119 +j    7.8528
846           3           9.5465 /_   14.4 =     9.2476 +j    2.3704
846       Resid           2.5232 /_ -167.3 =     -2.4616 +j  -0.55423

ELEMENT = "Line.L23"
846           1           9.8304 /_   79.6 =     1.7741 +j    9.6689
846           2           9.5437 /_  -46.6 =     6.5586 +j   -6.9331
846           3           9.7936 /_ -161.3 =    -9.2769 +j   -3.1391
846       Resid           1.0267 /_   23.1 =     0.94421 +j   0.40327
------------
848           1           9.8226 /_ -100.4 =    -1.7742 +j   -9.6611
848           2           9.5364 /_  133.4 =     -6.553 +j    6.9283
848           3            9.787 /_   18.7 =      9.271 +j    3.1358
848       Resid           1.0262 /_ -156.9 =     -0.9438 +j  -0.40296

ELEMENT = "Line.L24"
850           1           48.228 /_  -14.2 =     46.755 +j   -11.831
850           2           39.686 /_ -128.1 =    -24.502 +j   -31.218
850           3           37.924 /_  116.9 =    -17.176 +j    33.811
850       Resid           10.541 /_  118.8 =     -5.0764 +j     9.238
------------
816           1            48.23 /_  165.8 =    -46.755 +j    11.835
816           2           39.686 /_   51.9 =     24.506 +j    31.216
816           3           37.924 /_  -63.1 =     17.173 +j   -33.813
816       Resid           10.541 /_  -61.2 =      5.0766 +j   -9.2378

ELEMENT = "Line.L25"
852R          1           31.539 /_  -10.0 =     31.061 +j   -5.4734
852R          2           33.341 /_ -127.6 =    -20.325 +j   -26.429
852R          3           33.858 /_  116.1 =    -14.903 +j    30.402
852R      Resid            4.429 /_   19.8 =      4.1669 +j    1.5009
------------
832           1           31.539 /_  170.0 =    -31.061 +j    5.4735
832           2           33.341 /_   52.4 =     20.325 +j    26.429
832           3           33.858 /_  -63.9 =     14.903 +j   -30.402
832       Resid            4.429 /_ -160.2 =     -4.1669 +j   -1.5009

ELEMENT = "Transformer.XFM1"
832           1           11.684 /_  -31.2 =     9.9915 +j   -6.0564
832           2           11.694 /_ -151.7 =    -10.293 +j   -5.5517
832           3           11.612 /_   88.5 =    0.30088 +j    11.608
832           0       0.00029093 /_   37.7 =  0.0002303 +j 0.00017777
832       Resid      1.0233E-007 /_  171.7 =   -1.0126E-007 +j 1.4707E-008
------------
888           1           69.934 /_  148.8 =    -59.805 +j    36.251
888           2           69.998 /_   28.3 =     61.607 +j     33.23
888           3           69.504 /_  -91.5 =    -1.8009 +j    -69.48
888           0        0.0017414 /_ -142.3 =  -0.0013785 +j -0.001064
888       Resid      6.1252E-007 /_  171.7 =   -6.0616E-007 +j 8.8021E-008

ELEMENT = "Line.L26"
854           2          0.20726 /_  -75.1 =   0.053366 +j  -0.20027
------------
856           2          0.15597 /_   30.7 =    0.13417 +j  0.079539

ELEMENT = "Line.L27"
854           1           34.002 /_   -9.1 =      33.57 +j   -5.4011
854           2           35.656 /_ -126.8 =    -21.347 +j    -28.56
854           3           36.366 /_  116.8 =    -16.406 +j    32.455
854       Resid           4.4461 /_   19.8 =      4.1831 +j    1.5063
------------
852           1           34.102 /_  170.0 =    -33.585 +j    5.9195
852           2           35.633 /_   52.4 =     21.723 +j    28.245
852           3           36.397 /_  -63.9 =      16.02 +j   -32.682
852       Resid           4.4146 /_ -160.4 =     -4.1583 +j   -1.4825

ELEMENT = "Line.L28"
858           1         0.069078 /_  -16.9 =   0.066078 +j -0.020136
------------
864           1         0.074774 /_  151.0 =  -0.065386 +j  0.036273

ELEMENT = "Line.L29"
858           1           20.568 /_    2.5 =     20.549 +j    0.8961
858           2           22.734 /_ -115.5 =    -9.7797 +j   -20.523
858           3           23.648 /_  129.9 =    -15.182 +j    18.131
858       Resid           4.6596 /_   18.7 =      4.4129 +j    1.4961
------------
834           1           20.566 /_ -177.7 =     -20.55 +j  -0.80921
834           2           22.713 /_   64.3 =     9.8419 +j     20.47
834           3           23.635 /_  -50.2 =     15.117 +j   -18.168
834       Resid           4.6542 /_ -161.3 =     -4.4084 +j   -1.4925

ELEMENT = "Line.L30"
860           1           2.8111 /_  -26.5 =     2.5157 +j   -1.2546
860           2           5.1842 /_ -152.2 =    -4.5855 +j   -2.4185
860           3           2.6164 /_   83.9 =    0.27724 +j    2.6016
860       Resid           2.0884 /_   30.9 =      1.7926 +j    1.0715
------------
836           1           2.8299 /_  152.8 =    -2.5165 +j    1.2945
836           2           5.1981 /_   27.4 =      4.614 +j    2.3942
836           3           2.6367 /_  -96.7 =   -0.30702 +j   -2.6188
836       Resid           2.0858 /_ -149.1 =     -1.7905 +j   -1.0699

ELEMENT = "Line.L31"
862           2           1.0377 /_ -147.7 =   -0.87719 +j  -0.55435
------------
838           2           1.0589 /_   29.8 =    0.91841 +j   0.52698

ELEMENT = "Line.L32"
888           1           69.934 /_  -31.2 =     59.805 +j   -36.251
888           2           69.998 /_ -151.7 =    -61.607 +j    -33.23
888           3           69.504 /_   88.5 =     1.8009 +j     69.48
888       Resid        0.0017418 /_   37.6 =   0.0013791 +j 0.0010639
------------
890           1           69.947 /_  148.8 =    -59.805 +j    36.277
890           2           70.006 /_   28.3 =     61.625 +j    33.214
890           3           69.515 /_  -91.5 =    -1.8202 +j   -69.491
890       Resid      7.1054E-015 /_  180.0 =   -7.1054E-015 +j         0

ELEMENT = "Capacitor.C844"
844           1           7.2141 /_   87.5 =     0.3199 +j     7.207
844           2           7.1561 /_  -33.6 =     5.9594 +j   -3.9618
844           3           7.1764 /_ -153.3 =    -6.4127 +j   -3.2216
844       Resid           0.1355 /_  -10.0 =     0.13342 +j -0.023619
------------
844           0           7.2141 /_  -92.5 =    -0.3199 +j    -7.207
844           0           7.1561 /_  146.4 =    -5.9594 +j    3.9618
844           0           7.1764 /_   26.7 =     6.4127 +j    3.2216
844       Resid           0.1355 /_  170.0 =    -0.13342 +j  0.023619

ELEMENT = "Capacitor.C848"
848           1           10.824 /_   87.4 =    0.48948 +j    10.813
848           2           10.734 /_  -33.7 =     8.9333 +j   -5.9505
848           3           10.767 /_ -153.4 =     -9.626 +j   -4.8241
848       Resid          0.20673 /_  -10.6 =      0.2032 +j -0.038045
------------
848           0           10.824 /_  -92.6 =   -0.48948 +j   -10.813
848           0           10.734 /_  146.3 =    -8.9333 +j    5.9505
848           0           10.767 /_   26.6 =      9.626 +j    4.8241
848       Resid          0.20673 /_  169.4 =     -0.2032 +j  0.038045

ELEMENT = "Transformer.REG1A"
814           1           51.846 /_  -14.2 =     50.261 +j   -12.719
814           0           51.846 /_  165.8 =    -50.261 +j    12.719
------------
814R          1           48.228 /_  165.8 =    -46.755 +j    11.831
814R          0           48.229 /_  -14.2 =     46.755 +j   -11.831

ELEMENT = "Transformer.REG1B"
814           2           40.926 /_ -128.1 =    -25.269 +j   -32.193
814           0           40.926 /_   51.9 =     25.269 +j    32.194
------------
814R          2           39.686 /_   51.9 =     24.502 +j    31.219
814R          0           39.686 /_ -128.1 =    -24.503 +j   -31.218

ELEMENT = "Transformer.REG1C"
814           3           39.109 /_  116.9 =    -17.712 +j    34.868
814           0           39.109 /_  -63.1 =     17.712 +j   -34.868
------------
814R          3           37.924 /_  -63.1 =     17.176 +j   -33.811
814R          0           37.924 /_  116.9 =    -17.176 +j    33.811

ELEMENT = "Transformer.REG2A"
852           1           34.102 /_  -10.0 =     33.585 +j   -5.9195
852           0           34.102 /_  170.0 =    -33.585 +j    5.9189
------------
852R          1           31.539 /_  170.0 =    -31.061 +j    5.4734
852R          0            31.54 /_  -10.0 =     31.061 +j   -5.4741

ELEMENT = "Transformer.REG2B"
852           2           35.633 /_ -127.6 =    -21.723 +j   -28.245
852           0           35.633 /_   52.4 =     21.723 +j    28.246
------------
852R          2           33.341 /_   52.4 =     20.325 +j    26.429
852R          0           33.341 /_ -127.6 =    -20.325 +j   -26.429

ELEMENT = "Transformer.REG2C"
852           3           36.397 /_  116.1 =     -16.02 +j    32.682
852           0           36.397 /_  -63.9 =      16.02 +j   -32.682
------------
852R          3           33.858 /_  -63.9 =     14.903 +j   -30.402
852R          0           33.858 /_  116.1 =    -14.902 +j    30.402

= = = = = = = = = = = = = = = = = = =  = = = = = = = = = = =  = =

Power Conversion Elements

  Bus     Phase    Magnitude, A     Angle      (Real)   +j  (Imag)

ELEMENT = "Load.S860"
860           1           1.7181 /_  -41.2 =     1.2933 +j   -1.1309
860           2           1.7318 /_ -162.2 =    -1.6493 +j  -0.52804
860           3            1.727 /_   78.0 =    0.35781 +j    1.6895
860           0         0.030603 /_  -93.4 =  -0.0018313 +j -0.030548

ELEMENT = "Load.S840"
840           1          0.79311 /_  -40.4 =    0.60417 +j  -0.51381
840           2          0.79311 /_ -161.5 =   -0.75196 +j  -0.25216
840           3          0.79311 /_   78.8 =    0.15366 +j   0.77808
840           0         0.013457 /_ -115.9 =  -0.0058693 +j  -0.01211

ELEMENT = "Load.S844"
844           1           12.338 /_  -40.4 =     9.3937 +j   -7.9994
844           2           12.239 /_ -161.5 =    -11.606 +j   -3.8852
844           3           12.274 /_   78.8 =     2.3842 +j     12.04
844           0          0.23173 /_ -137.9 =   -0.17201 +j  -0.15527

ELEMENT = "Load.S848"
848           1           1.7253 /_  -41.9 =     1.2848 +j   -1.1516
848           2           1.7253 /_ -161.9 =    -1.6397 +j  -0.53678
848           3           1.7252 /_   78.1 =    0.35495 +j    1.6883

ELEMENT = "Load.S830A"
830           1          0.44897 /_    1.1 =    0.44889 +j 0.0085654
830           2          0.44897 /_ -178.9 =   -0.44889 +j -0.0085654

ELEMENT = "Load.S830B"
830           2          0.44627 /_ -119.2 =   -0.21738 +j  -0.38975
830           3          0.44627 /_   60.8 =    0.21738 +j   0.38975

ELEMENT = "Load.S830C"
830           3           1.0741 /_  126.0 =   -0.63186 +j   0.86855
830           1           1.0741 /_  -54.0 =    0.63186 +j  -0.86855

ELEMENT = "Load.S890"
890           1           69.949 /_  -31.2 =     59.807 +j   -36.278
890           2           70.008 /_ -151.7 =    -61.626 +j   -33.215
890           3           69.516 /_   88.5 =     1.8199 +j    69.493

ELEMENT = "Load.D802_806SB"
802           2           1.1127 /_ -146.6 =   -0.92913 +j  -0.61218
802           0           1.1127 /_   33.4 =    0.92913 +j   0.61218

ELEMENT = "Load.D802_806RB"
806           2           1.1138 /_ -146.7 =   -0.93042 +j  -0.61219
806           0           1.1138 /_   33.3 =    0.93042 +j   0.61219

ELEMENT = "Load.D802_806SC"
802           3           0.9505 /_   90.7 =  -0.011747 +j   0.95043
802           0           0.9505 /_  -89.3 =   0.011747 +j  -0.95043

ELEMENT = "Load.D802_806RC"
806           3          0.95142 /_   90.7 =  -0.011299 +j   0.95135
806           0          0.95142 /_  -89.3 =   0.011299 +j  -0.95135

ELEMENT = "Load.D808_810SB"
808           2          0.62587 /_ -148.0 =   -0.53081 +j   -0.3316
808           0          0.62587 /_   32.0 =    0.53081 +j    0.3316

ELEMENT = "Load.D808_810RB"
810           2          0.62585 /_ -148.0 =   -0.53077 +j  -0.33162
810           0          0.62585 /_   32.0 =    0.53077 +j   0.33162

ELEMENT = "Load.D818_820SA"
818           1           1.3497 /_  -28.3 =     1.1884 +j  -0.63995
818           0           1.3497 /_  151.7 =    -1.1884 +j   0.63995

ELEMENT = "Load.D818_820RA"
820           1           1.3196 /_  -28.3 =     1.1623 +j  -0.62495
820           0           1.3196 /_  151.7 =    -1.1623 +j   0.62495

ELEMENT = "Load.D820_822SA"
820           1           5.2989 /_  -29.1 =     4.6296 +j   -2.5778
820           0           5.2989 /_  150.9 =    -4.6296 +j    2.5778

ELEMENT = "Load.D820_822RA"
822           1           5.3144 /_  -29.1 =     4.6435 +j   -2.5847
822           0           5.3144 /_  150.9 =    -4.6435 +j    2.5847

ELEMENT = "Load.D816_824SB"
816           2         0.068201 /_ -144.0 =  -0.055188 +j  -0.04007
816           0         0.068201 /_   36.0 =   0.055188 +j   0.04007

ELEMENT = "Load.D816_824RB"
824           2         0.067371 /_ -144.2 =   -0.05464 +j -0.039413
824           0         0.067371 /_   35.8 =    0.05464 +j  0.039413

ELEMENT = "Load.D824_826SB"
824           2           1.5554 /_ -149.0 =    -1.3327 +j  -0.80203
824           0           1.5554 /_   31.0 =     1.3327 +j   0.80203

ELEMENT = "Load.D824_826RB"
826           2           1.5554 /_ -149.0 =    -1.3327 +j  -0.80204
826           0           1.5554 /_   31.0 =     1.3327 +j   0.80204

ELEMENT = "Load.D824_828SC"
824           3          0.15364 /_   91.6 =  -0.0041786 +j   0.15358
824           0          0.15364 /_  -88.4 =  0.0041786 +j  -0.15358

ELEMENT = "Load.D824_828RC"
828           3          0.15374 /_   91.5 =  -0.0041365 +j   0.15369
828           0          0.15374 /_  -88.5 =  0.0041365 +j  -0.15369

ELEMENT = "Load.D828_830SA"
828           1          0.26168 /_  -25.0 =     0.2371 +j  -0.11071
828           0          0.26168 /_  155.0 =    -0.2371 +j   0.11071

ELEMENT = "Load.D828_830RA"
830           1          0.26628 /_  -25.2 =     0.2409 +j  -0.11346
830           0          0.26628 /_  154.8 =    -0.2409 +j   0.11346

ELEMENT = "Load.D854_856SB"
854           2          0.15596 /_ -149.3 =   -0.13415 +j -0.079543
854           0          0.15596 /_   30.7 =    0.13415 +j  0.079543

ELEMENT = "Load.D854_856RB"
856           2          0.15598 /_ -149.3 =   -0.13417 +j  -0.07954
856           0          0.15598 /_   30.7 =    0.13417 +j   0.07954

ELEMENT = "Load.D832_858SA"
832           1         0.092034 /_  -25.6 =   0.082998 +j  -0.03977
832           0         0.092034 /_  154.4 =  -0.082998 +j   0.03977

ELEMENT = "Load.D832_858RA"
858           1         0.091831 /_  -25.7 =   0.082779 +j -0.039755
858           0         0.091831 /_  154.3 =  -0.082779 +j  0.039755

ELEMENT = "Load.D832_858SB"
832           2         0.026813 /_ -150.0 =  -0.023216 +j -0.013415
832           0         0.026813 /_   30.0 =   0.023216 +j  0.013415

ELEMENT = "Load.D832_858RB"
858           2         0.026752 /_ -150.1 =  -0.023181 +j -0.013352
858           0         0.026752 /_   29.9 =   0.023181 +j  0.013352

ELEMENT = "Load.D832_858SC"
832           3         0.080636 /_   90.4 =  -0.00049259 +j  0.080634
832           0         0.080636 /_  -89.6 =  0.00049259 +j -0.080634

ELEMENT = "Load.D832_858RC"
858           3          0.08046 /_   90.3 =  -0.00035648 +j   0.08046
858           0          0.08046 /_  -89.7 =  0.00035648 +j  -0.08046

ELEMENT = "Load.D858_864SB"
858           1         0.074774 /_  -29.0 =   0.065387 +j -0.036273
858           0         0.074774 /_  151.0 =  -0.065387 +j  0.036273

ELEMENT = "Load.D858_864RB"
864           1         0.074775 /_  -29.0 =   0.065387 +j -0.036274
864           0         0.074775 /_  151.0 =  -0.065387 +j  0.036274

ELEMENT = "Load.D858_834SA"
858           1         0.086232 /_    0.3 =   0.086231 +j 0.00050195
858           2         0.086232 /_ -179.7 =  -0.086231 +j -0.00050195

ELEMENT = "Load.D858_834RA"
834           1         0.086444 /_    0.3 =   0.086443 +j 0.00038324
834           2         0.086444 /_ -179.7 =  -0.086443 +j -0.00038324

ELEMENT = "Load.D858_834SB"
858           2           0.3309 /_ -121.4 =   -0.17224 +j  -0.28254
858           3           0.3309 /_   58.6 =    0.17224 +j   0.28254

ELEMENT = "Load.D858_834RB"
834           2          0.33172 /_ -121.5 =   -0.17318 +j  -0.28293
834           3          0.33172 /_   58.5 =    0.17318 +j   0.28293

ELEMENT = "Load.D858_834SC"
858           3          0.28687 /_  119.0 =   -0.13895 +j   0.25097
858           1          0.28687 /_  -61.0 =    0.13895 +j  -0.25097

ELEMENT = "Load.D858_834RC"
834           3          0.28768 /_  118.9 =   -0.13895 +j    0.2519
834           1          0.28768 /_  -61.1 =    0.13895 +j   -0.2519

ELEMENT = "Load.D834_860SA"
834           1          0.37316 /_    0.3 =    0.37316 +j 0.0016543
834           2          0.37316 /_ -179.7 =   -0.37316 +j -0.0016543

ELEMENT = "Load.D834_860RA"
860           1          0.37302 /_    0.3 =    0.37302 +j 0.0016855
860           2          0.37302 /_ -179.7 =   -0.37302 +j -0.0016855

ELEMENT = "Load.D834_860SB"
834           2          0.46206 /_ -120.0 =   -0.23077 +j  -0.40031
834           3          0.46206 /_   60.0 =    0.23077 +j   0.40031

ELEMENT = "Load.D834_860RB"
860           2          0.46189 /_ -120.0 =   -0.23068 +j  -0.40017
860           3          0.46189 /_   60.0 =    0.23068 +j   0.40017

ELEMENT = "Load.D834_860SC"
834           3           2.5451 /_  120.6 =    -1.2962 +j    2.1903
834           1           2.5451 /_  -59.4 =     1.2962 +j   -2.1903

ELEMENT = "Load.D834_860RC"
860           3           2.5441 /_  120.6 =    -1.2958 +j    2.1893
860           1           2.5441 /_  -59.4 =     1.2958 +j   -2.1893

ELEMENT = "Load.D860_836SA"
860           1          0.64857 /_    0.3 =    0.64856 +j 0.0029305
860           2          0.64857 /_ -179.7 =   -0.64856 +j -0.0029305

ELEMENT = "Load.D860_836RA"
836           1          0.64873 /_    0.3 =    0.64873 +j 0.0029212
836           2          0.64873 /_ -179.7 =   -0.64873 +j -0.0029212

ELEMENT = "Load.D860_836SB"
860           2          0.22764 /_ -124.4 =   -0.12848 +j  -0.18792
860           3          0.22764 /_   55.6 =    0.12848 +j   0.18792

ELEMENT = "Load.D860_836RB"
836           2           0.2277 /_ -124.4 =    -0.1285 +j  -0.18798
836           3           0.2277 /_   55.6 =     0.1285 +j   0.18798

ELEMENT = "Load.D860_836SC"
860           3          0.92419 /_  119.5 =   -0.45563 +j   0.80406
860           1          0.92419 /_  -60.5 =    0.45563 +j  -0.80406

ELEMENT = "Load.D860_836RC"
836           3          0.92434 /_  119.5 =   -0.45573 +j   0.80419
836           1          0.92434 /_  -60.5 =    0.45573 +j  -0.80419

ELEMENT = "Load.D836_840SA"
836           1          0.40411 /_    0.3 =     0.4041 +j 0.0018197
836           2          0.40411 /_ -179.7 =    -0.4041 +j -0.0018197

ELEMENT = "Load.D836_840RA"
840           1          0.40411 /_    0.3 =     0.4041 +j 0.0018199
840           2          0.40411 /_ -179.7 =    -0.4041 +j -0.0018199

ELEMENT = "Load.D836_840SB"
836           2          0.49391 /_ -120.0 =   -0.24664 +j  -0.42792
836           3          0.49391 /_   60.0 =    0.24664 +j   0.42792

ELEMENT = "Load.D836_840RB"
840           2          0.49391 /_ -120.0 =   -0.24663 +j  -0.42793
840           3          0.49391 /_   60.0 =    0.24663 +j   0.42793

ELEMENT = "Load.D862_838SB"
862           2           1.0587 /_ -150.2 =   -0.91828 +j  -0.52693
862           0           1.0587 /_   29.8 =    0.91828 +j   0.52693

ELEMENT = "Load.D862_838RB"
838           2           1.0589 /_ -150.2 =   -0.91842 +j  -0.52699
838           0           1.0589 /_   29.8 =    0.91842 +j   0.52699

ELEMENT = "Load.D842_844SA"
842           1          0.34519 /_  -31.6 =    0.29409 +j  -0.18074
842           0          0.34519 /_  148.4 =   -0.29409 +j   0.18074

ELEMENT = "Load.D842_844RA"
844           1          0.34527 /_  -31.6 =    0.29409 +j   -0.1809
844           0          0.34527 /_  148.4 =   -0.29409 +j    0.1809

ELEMENT = "Load.D844_846SB"
844           2          0.93751 /_ -149.3 =   -0.80576 +j  -0.47924
844           0          0.93751 /_   30.7 =    0.80576 +j   0.47924

ELEMENT = "Load.D844_846RB"
846           2          0.93757 /_ -149.3 =   -0.80619 +j  -0.47864
846           0          0.93757 /_   30.7 =    0.80619 +j   0.47864

ELEMENT = "Load.D844_846SC"
844           3          0.76948 /_   87.9 =   0.028694 +j   0.76895
844           0          0.76948 /_  -92.1 =  -0.028694 +j  -0.76895

ELEMENT = "Load.D844_846RC"
846           3          0.76933 /_   87.8 =   0.029346 +j   0.76877
846           0          0.76933 /_  -92.2 =  -0.029346 +j  -0.76877

ELEMENT = "Load.D846_848SB"
846           2          0.86198 /_ -149.2 =   -0.74057 +j   -0.4411
846           0          0.86198 /_   30.8 =    0.74057 +j    0.4411

ELEMENT = "Load.D846_848RB"
848           2          0.86196 /_ -149.2 =    -0.7406 +j    -0.441
848           0          0.86196 /_   30.8 =     0.7406 +j     0.441

